<?xml version="1.0" encoding="UTF-8"?>

<!-- generated on 2025-10-14 22:54:58.905775 by randomTrips.py UNKNOWN
<configuration>
    <net-file value="../01_simulation/02_scenario/grid.net.xml"/>
    <weights-prefix value="probs"/>
    <output-trip-file value="../01_simulation/02_scenario/trips.trips.xml"/>
    <end value="14400.0"/>
    <period value="1.25"/>
</configuration>
-->

<!-- generated on 2025-10-14 22:54:58 by Eclipse SUMO duarouter Version 1.24.0
<duarouterConfiguration xmlns:xsi="http://www.w3.org/2001/XMLSchema-instance" xsi:noNamespaceSchemaLocation="http://sumo.dlr.de/xsd/duarouterConfiguration.xsd">

    <input>
        <net-file value="../01_simulation/02_scenario/grid.net.xml"/>
        <route-files value="../01_simulation/02_scenario/trips.trips.xml"/>
    </input>

    <output>
        <output-file value="routes.rou.xml"/>
        <alternatives-output value="NUL"/>
    </output>

    <time>
        <begin value="0"/>
        <end value="14400.0"/>
    </time>

    <report>
        <no-warnings value="true"/>
        <ignore-errors value="true"/>
        <no-step-log value="true"/>
    </report>

</duarouterConfiguration>
-->

<routes xmlns:xsi="http://www.w3.org/2001/XMLSchema-instance" xsi:noNamespaceSchemaLocation="http://sumo.dlr.de/xsd/routes_file.xsd">
    <vehicle id="0" depart="0.00">
        <route edges="D5C5 C5B5 B5A5 A5A4 A4A3 A3A2 A2A1"/>
    </vehicle>
    <vehicle id="1" depart="1.25">
        <route edges="B1B0 B0A0 A0A1 A1A2 A2A3 A3B3 B3B2"/>
    </vehicle>
    <vehicle id="2" depart="2.50">
        <route edges="E2E3 E3D3 D3D4 D4E4"/>
    </vehicle>
    <vehicle id="3" depart="3.75">
        <route edges="F1F2 F2F3 F3E3 E3D3 D3C3 C3B3 B3A3 A3A4 A4B4"/>
    </vehicle>
    <vehicle id="4" depart="5.00">
        <route edges="B5C5 C5C4 C4C3 C3C2 C2B2 B2A2 A2A3"/>
    </vehicle>
    <vehicle id="5" depart="6.25">
        <route edges="B0A0 A0A1 A1B1 B1C1 C1D1 D1D0 D0C0"/>
    </vehicle>
    <vehicle id="6" depart="7.50">
        <route edges="A0B0 B0B1 B1B2 B2B3 B3A3"/>
    </vehicle>
    <vehicle id="7" depart="8.75">
        <route edges="D5E5 E5E4 E4E3 E3E2 E2E1 E1D1 D1C1"/>
    </vehicle>
    <vehicle id="8" depart="10.00">
        <route edges="B0A0 A0A1 A1A2 A2B2 B2C2 C2D2 D2D3"/>
    </vehicle>
    <vehicle id="9" depart="11.25">
        <route edges="E5F5 F5F4 F4F3 F3E3 E3D3 D3C3 C3B3 B3A3 A3A2 A2A1 A1A0"/>
    </vehicle>
    <vehicle id="10" depart="12.50">
        <route edges="E5F5 F5F4 F4E4 E4E5 E5D5 D5D4"/>
    </vehicle>
    <vehicle id="11" depart="13.75">
        <route edges="B3B2 B2B1"/>
    </vehicle>
    <vehicle id="12" depart="15.00">
        <route edges="F4F3 F3F2 F2F1 F1E1 E1D1 D1C1 C1C0"/>
    </vehicle>
    <vehicle id="13" depart="16.25">
        <route edges="A2A1 A1A0 A0B0 B0B1"/>
    </vehicle>
    <vehicle id="14" depart="17.50">
        <route edges="F0F1 F1F2 F2F3 F3E3 E3D3 D3C3"/>
    </vehicle>
    <vehicle id="15" depart="18.75">
        <route edges="E5F5 F5F4 F4F3 F3F2 F2F1 F1E1 E1D1"/>
    </vehicle>
    <vehicle id="16" depart="20.00">
        <route edges="C5B5 B5B4 B4B3 B3C3 C3D3 D3E3 E3F3 F3F4"/>
    </vehicle>
    <vehicle id="17" depart="21.25">
        <route edges="B4C4 C4D4 D4D3 D3D2 D2D1 D1D0"/>
    </vehicle>
    <vehicle id="18" depart="22.50">
        <route edges="F0E0 E0D0 D0D1 D1D2 D2D3 D3D4"/>
    </vehicle>
    <vehicle id="19" depart="23.75">
        <route edges="F1E1 E1D1 D1D2 D2C2"/>
    </vehicle>
    <vehicle id="20" depart="25.00">
        <route edges="E1E0 E0D0 D0C0 C0B0 B0A0 A0A1 A1A2 A2B2"/>
    </vehicle>
    <vehicle id="21" depart="26.25">
        <route edges="B0A0 A0A1 A1A2 A2A3 A3A4 A4A5 A5B5 B5B4"/>
    </vehicle>
    <vehicle id="22" depart="27.50">
        <route edges="A1B1 B1B2 B2B3 B3B4"/>
    </vehicle>
    <vehicle id="23" depart="28.75">
        <route edges="A2A1 A1B1 B1B2 B2B3 B3B4 B4C4"/>
    </vehicle>
    <vehicle id="24" depart="30.00">
        <route edges="D5C5 C5C4 C4C3 C3C2 C2C1 C1D1"/>
    </vehicle>
    <vehicle id="25" depart="31.25">
        <route edges="B4B5 B5C5 C5C4 C4C3 C3B3 B3B2"/>
    </vehicle>
    <vehicle id="26" depart="32.50">
        <route edges="B1A1 A1A2 A2A3 A3B3 B3C3 C3D3 D3E3 E3F3 F3F2 F2E2"/>
    </vehicle>
    <vehicle id="27" depart="33.75">
        <route edges="D5E5 E5E4 E4E3 E3D3 D3C3"/>
    </vehicle>
    <vehicle id="28" depart="35.00">
        <route edges="A4B4 B4C4 C4D4 D4E4 E4E3 E3E2 E2E1 E1D1"/>
    </vehicle>
    <vehicle id="29" depart="36.25">
        <route edges="A4B4 B4C4 C4C3 C3C2 C2C1"/>
    </vehicle>
    <vehicle id="30" depart="37.50">
        <route edges="F5F4 F4E4 E4D4 D4C4"/>
    </vehicle>
    <vehicle id="31" depart="38.75">
        <route edges="D0C0 C0C1 C1C2 C2C3 C3C4 C4D4 D4D5 D5C5"/>
    </vehicle>
    <vehicle id="32" depart="40.00">
        <route edges="F0F1 F1F2 F2E2 E2E3"/>
    </vehicle>
    <vehicle id="33" depart="41.25">
        <route edges="B0A0 A0A1 A1A2 A2A3"/>
    </vehicle>
    <vehicle id="34" depart="42.50">
        <route edges="B2B1 B1A1 A1A2 A2A3 A3A4 A4B4 B4B5"/>
    </vehicle>
    <vehicle id="35" depart="43.75">
        <route edges="B0A0 A0A1 A1A2 A2B2 B2C2 C2D2 D2E2 E2F2 F2F1"/>
    </vehicle>
    <vehicle id="36" depart="45.00">
        <route edges="F1F0 F0E0 E0D0 D0D1 D1C1 C1C0 C0D0"/>
    </vehicle>
    <vehicle id="37" depart="46.25">
        <route edges="E0D0 D0C0 C0C1 C1C2 C2D2"/>
    </vehicle>
    <vehicle id="38" depart="47.50">
        <route edges="F2F1 F1E1 E1D1 D1C1 C1C2 C2C3 C3C4 C4D4"/>
    </vehicle>
    <vehicle id="39" depart="48.75">
        <route edges="B1A1 A1A2 A2B2 B2B3 B3B4 B4A4"/>
    </vehicle>
    <vehicle id="40" depart="50.00">
        <route edges="D0C0 C0C1 C1C2 C2C3 C3C4 C4B4 B4B3"/>
    </vehicle>
    <vehicle id="41" depart="51.25">
        <route edges="D1D0 D0E0 E0E1 E1E2 E2E3 E3E4 E4E5 E5D5"/>
    </vehicle>
    <vehicle id="42" depart="52.50">
        <route edges="B5A5 A5A4 A4A3 A3B3 B3B2"/>
    </vehicle>
    <vehicle id="43" depart="53.75">
        <route edges="F5F4 F4F3 F3F2 F2F1 F1F0 F0E0 E0D0 D0D1"/>
    </vehicle>
    <vehicle id="44" depart="55.00">
        <route edges="A2A1 A1B1 B1B2 B2B3 B3A3 A3A2"/>
    </vehicle>
    <vehicle id="45" depart="56.25">
        <route edges="A2A3 A3B3 B3C3 C3D3 D3E3"/>
    </vehicle>
    <vehicle id="46" depart="57.50">
        <route edges="E5D5 D5C5 C5C4 C4C3 C3D3"/>
    </vehicle>
    <vehicle id="47" depart="58.75">
        <route edges="A1A2 A2B2 B2C2 C2C1"/>
    </vehicle>
    <vehicle id="48" depart="60.00">
        <route edges="F5F4 F4F3 F3F2 F2F1 F1E1 E1D1 D1C1"/>
    </vehicle>
    <vehicle id="49" depart="61.25">
        <route edges="F4F5 F5E5 E5E4 E4D4"/>
    </vehicle>
    <vehicle id="50" depart="62.50">
        <route edges="A0A1 A1A2 A2B2 B2C2 C2D2 D2E2 E2E1 E1D1"/>
    </vehicle>
    <vehicle id="51" depart="63.75">
        <route edges="E0F0 F0F1 F1E1 E1D1 D1C1"/>
    </vehicle>
    <vehicle id="52" depart="65.00">
        <route edges="B1A1 A1A2 A2B2 B2C2 C2D2 D2D3 D3D4 D4C4"/>
    </vehicle>
    <vehicle id="53" depart="66.25">
        <route edges="A2B2 B2C2 C2C3 C3C4 C4B4"/>
    </vehicle>
    <vehicle id="54" depart="67.50">
        <route edges="C0D0 D0E0 E0F0 F0F1 F1F2 F2F3 F3E3"/>
    </vehicle>
    <vehicle id="55" depart="68.75">
        <route edges="F1F0 F0E0 E0D0 D0C0 C0B0 B0B1 B1B2 B2B3 B3B4 B4B5"/>
    </vehicle>
    <vehicle id="56" depart="70.00">
        <route edges="C3B3 B3A3 A3A2 A2B2 B2B3"/>
    </vehicle>
    <vehicle id="57" depart="71.25">
        <route edges="F2F1 F1E1 E1D1 D1D2 D2D3 D3D4 D4E4 E4E3"/>
    </vehicle>
    <vehicle id="58" depart="72.50">
        <route edges="B1C1 C1D1 D1D2 D2D3 D3D4 D4C4"/>
    </vehicle>
    <vehicle id="59" depart="73.75">
        <route edges="D3C3 C3B3 B3B2 B2A2"/>
    </vehicle>
    <vehicle id="60" depart="75.00">
        <route edges="E4D4 D4D3 D3D2 D2D1 D1C1"/>
    </vehicle>
    <vehicle id="61" depart="76.25">
        <route edges="E4E5 E5D5 D5D4 D4D3 D3D2 D2D1 D1C1"/>
    </vehicle>
    <vehicle id="62" depart="77.50">
        <route edges="A0A1 A1A2 A2B2 B2C2 C2C1 C1B1"/>
    </vehicle>
    <vehicle id="63" depart="78.75">
        <route edges="A0A1 A1B1 B1C1 C1D1 D1E1 E1F1 F1F2 F2E2"/>
    </vehicle>
    <vehicle id="64" depart="80.00">
        <route edges="F1F0 F0E0 E0D0 D0D1 D1D2 D2D3 D3E3 E3E2"/>
    </vehicle>
    <vehicle id="65" depart="81.25">
        <route edges="B2A2 A2A3 A3A4"/>
    </vehicle>
    <vehicle id="66" depart="82.50">
        <route edges="F1F0 F0E0 E0E1 E1E2 E2F2 F2F3"/>
    </vehicle>
    <vehicle id="67" depart="83.75">
        <route edges="A1B1 B1B2 B2B3 B3B4 B4B5 B5C5 C5C4"/>
    </vehicle>
    <vehicle id="68" depart="85.00">
        <route edges="A1A2 A2A3 A3B3 B3C3 C3D3 D3E3 E3E2 E2D2"/>
    </vehicle>
    <vehicle id="69" depart="86.25">
        <route edges="E4D4 D4C4 C4C3 C3C2 C2C1 C1B1 B1B2"/>
    </vehicle>
    <vehicle id="70" depart="87.50">
        <route edges="C1C2 C2D2 D2D1 D1D0"/>
    </vehicle>
    <vehicle id="71" depart="88.75">
        <route edges="B1A1 A1A2 A2A3 A3A4 A4B4 B4C4 C4D4 D4E4 E4E3"/>
    </vehicle>
    <vehicle id="72" depart="90.00">
        <route edges="B5C5 C5C4 C4B4 B4B3 B3B2"/>
    </vehicle>
    <vehicle id="73" depart="91.25">
        <route edges="C5B5 B5B4 B4B3 B3B2 B2C2 C2D2 D2E2 E2E1 E1D1"/>
    </vehicle>
    <vehicle id="74" depart="92.50">
        <route edges="A5B5 B5C5 C5C4 C4C3 C3C2 C2C1 C1C0 C0D0"/>
    </vehicle>
    <vehicle id="75" depart="93.75">
        <route edges="F5F4 F4E4 E4D4 D4C4"/>
    </vehicle>
    <vehicle id="76" depart="95.00">
        <route edges="C0B0 B0B1 B1C1 C1C0 C0D0 D0D1"/>
    </vehicle>
    <vehicle id="77" depart="96.25">
        <route edges="A3A2 A2B2 B2C2 C2C3 C3B3 B3B2"/>
    </vehicle>
    <vehicle id="78" depart="97.50">
        <route edges="B3B2 B2C2 C2D2 D2D1"/>
    </vehicle>
    <vehicle id="79" depart="98.75">
        <route edges="B0B1 B1B2 B2A2 A2A3 A3B3 B3B2"/>
    </vehicle>
    <vehicle id="80" depart="100.00">
        <route edges="A1A2 A2A3 A3B3 B3C3 C3D3 D3D4 D4C4"/>
    </vehicle>
    <vehicle id="81" depart="101.25">
        <route edges="B0A0 A0A1 A1A2 A2A3 A3A4 A4A5 A5B5 B5C5 C5D5 D5E5 E5F5"/>
    </vehicle>
    <vehicle id="82" depart="102.50">
        <route edges="F1E1 E1D1 D1C1 C1B1 B1A1 A1A2 A2A3 A3B3"/>
    </vehicle>
    <vehicle id="83" depart="103.75">
        <route edges="B0B1 B1B2 B2B3 B3B4 B4C4 C4D4 D4E4"/>
    </vehicle>
    <vehicle id="84" depart="105.00">
        <route edges="B0A0 A0A1 A1B1 B1C1"/>
    </vehicle>
    <vehicle id="85" depart="106.25">
        <route edges="F3F4 F4E4 E4D4 D4D3 D3D2 D2D1 D1E1"/>
    </vehicle>
    <vehicle id="86" depart="107.50">
        <route edges="C1C0 C0D0 D0E0 E0E1 E1E2 E2E3"/>
    </vehicle>
    <vehicle id="87" depart="108.75">
        <route edges="E5F5 F5F4 F4F3 F3E3 E3D3 D3C3 C3B3 B3B2 B2C2"/>
    </vehicle>
    <vehicle id="88" depart="110.00">
        <route edges="A2A1 A1B1 B1C1 C1C2 C2C3 C3C4 C4B4"/>
    </vehicle>
    <vehicle id="89" depart="111.25">
        <route edges="B5C5 C5C4 C4D4"/>
    </vehicle>
    <vehicle id="90" depart="112.50">
        <route edges="E2E1 E1D1 D1D2 D2D3 D3D4 D4E4"/>
    </vehicle>
    <vehicle id="91" depart="113.75">
        <route edges="F5E5 E5D5 D5C5 C5C4 C4C3 C3C2 C2C1 C1C0 C0B0 B0B1"/>
    </vehicle>
    <vehicle id="92" depart="115.00">
        <route edges="B5A5 A5A4 A4A3 A3A2 A2A1 A1B1 B1C1 C1C0"/>
    </vehicle>
    <vehicle id="93" depart="116.25">
        <route edges="F1E1 E1D1 D1C1 C1B1 B1B2 B2B3 B3B4 B4A4"/>
    </vehicle>
    <vehicle id="94" depart="117.50">
        <route edges="A5B5 B5B4 B4C4 C4C5"/>
    </vehicle>
    <vehicle id="95" depart="118.75">
        <route edges="B5C5 C5C4 C4C3 C3B3 B3B4 B4C4"/>
    </vehicle>
    <vehicle id="96" depart="120.00">
        <route edges="B0C0 C0D0 D0E0 E0F0 F0F1 F1F2"/>
    </vehicle>
    <vehicle id="97" depart="121.25">
        <route edges="C0B0 B0B1 B1C1 C1D1 D1E1 E1E2 E2E3 E3E4 E4D4"/>
    </vehicle>
    <vehicle id="98" depart="122.50">
        <route edges="C5D5 D5D4 D4C4 C4B4 B4A4 A4A3 A3A2"/>
    </vehicle>
    <vehicle id="99" depart="123.75">
        <route edges="F5F4 F4F3 F3E3 E3E4"/>
    </vehicle>
    <vehicle id="100" depart="125.00">
        <route edges="F4F5 F5E5 E5E4 E4E3 E3E2 E2E1 E1F1 F1F2"/>
    </vehicle>
    <vehicle id="101" depart="126.25">
        <route edges="F0F1 F1F2 F2E2 E2D2 D2C2 C2B2 B2B1"/>
    </vehicle>
    <vehicle id="102" depart="127.50">
        <route edges="C2B2 B2A2 A2A3 A3B3 B3B2"/>
    </vehicle>
    <vehicle id="103" depart="128.75">
        <route edges="B5A5 A5A4 A4B4 B4B3 B3A3 A3A4"/>
    </vehicle>
    <vehicle id="104" depart="130.00">
        <route edges="B4C4 C4D4 D4E4 E4F4 F4F3"/>
    </vehicle>
    <vehicle id="105" depart="131.25">
        <route edges="B1A1 A1A2 A2B2 B2C2 C2D2 D2E2 E2E3"/>
    </vehicle>
    <vehicle id="106" depart="132.50">
        <route edges="C0D0 D0D1 D1D2 D2C2 C2C3 C3D3"/>
    </vehicle>
    <vehicle id="107" depart="133.75">
        <route edges="F4F3 F3E3 E3E4 E4F4 F4F5 F5E5"/>
    </vehicle>
    <vehicle id="108" depart="135.00">
        <route edges="D0C0 C0C1 C1D1 D1E1 E1E0 E0F0"/>
    </vehicle>
    <vehicle id="109" depart="136.25">
        <route edges="A4A5 A5B5 B5C5 C5C4 C4C3 C3C2 C2C1 C1C0 C0B0"/>
    </vehicle>
    <vehicle id="110" depart="137.50">
        <route edges="F4F5 F5E5 E5D5 D5D4 D4D3 D3D2 D2C2"/>
    </vehicle>
    <vehicle id="111" depart="138.75">
        <route edges="C5B5 B5B4 B4B3 B3B2 B2B1 B1C1 C1D1 D1E1 E1E2"/>
    </vehicle>
    <vehicle id="112" depart="140.00">
        <route edges="A1A0 A0B0 B0C0 C0C1 C1C2 C2D2 D2D1"/>
    </vehicle>
    <vehicle id="113" depart="141.25">
        <route edges="C3C2 C2D2 D2E2 E2E3 E3F3"/>
    </vehicle>
    <vehicle id="114" depart="142.50">
        <route edges="A4A5 A5B5 B5C5 C5D5 D5E5 E5F5 F5F4 F4F3 F3E3"/>
    </vehicle>
    <vehicle id="115" depart="143.75">
        <route edges="A1B1 B1B2 B2B3"/>
    </vehicle>
    <vehicle id="116" depart="145.00">
        <route edges="D1E1 E1E2 E2E3 E3D3 D3D4 D4E4"/>
    </vehicle>
    <vehicle id="117" depart="146.25">
        <route edges="B0B1 B1B2"/>
    </vehicle>
    <vehicle id="118" depart="147.50">
        <route edges="F1F2 F2F3 F3F4 F4E4 E4D4 D4C4 C4B4 B4A4"/>
    </vehicle>
    <vehicle id="119" depart="148.75">
        <route edges="D1E1 E1E2 E2E3 E3D3 D3D4"/>
    </vehicle>
    <vehicle id="120" depart="150.00">
        <route edges="B5C5 C5D5 D5D4 D4D3 D3D2 D2D1"/>
    </vehicle>
    <vehicle id="121" depart="151.25">
        <route edges="C4C5 C5D5 D5E5 E5F5 F5F4 F4F3 F3F2 F2E2"/>
    </vehicle>
    <vehicle id="122" depart="152.50">
        <route edges="A5B5 B5C5 C5D5 D5D4 D4D3 D3D2 D2D1 D1D0 D0E0 E0E1"/>
    </vehicle>
    <vehicle id="123" depart="153.75">
        <route edges="B0B1 B1B2 B2C2 C2D2"/>
    </vehicle>
    <vehicle id="124" depart="155.00">
        <route edges="E0E1 E1D1 D1C1 C1C0 C0B0"/>
    </vehicle>
    <vehicle id="125" depart="156.25">
        <route edges="B2B1 B1C1 C1D1 D1E1 E1F1"/>
    </vehicle>
    <vehicle id="126" depart="157.50">
        <route edges="A1A2 A2A3 A3A4 A4B4 B4C4 C4D4"/>
    </vehicle>
    <vehicle id="127" depart="158.75">
        <route edges="F5F4 F4F3 F3E3 E3E4 E4F4 F4F5 F5E5"/>
    </vehicle>
    <vehicle id="128" depart="160.00">
        <route edges="A1A2 A2A3 A3B3 B3B2"/>
    </vehicle>
    <vehicle id="129" depart="161.25">
        <route edges="B1A1 A1A2 A2A3 A3B3 B3C3 C3D3 D3E3 E3F3 F3F2 F2E2"/>
    </vehicle>
    <vehicle id="130" depart="162.50">
        <route edges="F1F0 F0E0 E0D0 D0D1 D1D2 D2D3 D3D4 D4E4 E4E3"/>
    </vehicle>
    <vehicle id="131" depart="163.75">
        <route edges="B4B5 B5C5 C5C4 C4C3 C3C2 C2B2 B2B1"/>
    </vehicle>
    <vehicle id="132" depart="165.00">
        <route edges="F0F1 F1F2 F2F3 F3F4 F4E4 E4D4 D4D5 D5E5"/>
    </vehicle>
    <vehicle id="133" depart="166.25">
        <route edges="D3D2 D2E2 E2E3 E3E4 E4F4 F4F3"/>
    </vehicle>
    <vehicle id="134" depart="167.50">
        <route edges="E0D0 D0C0 C0B0 B0B1 B1A1 A1A0"/>
    </vehicle>
    <vehicle id="135" depart="168.75">
        <route edges="E5F5 F5F4 F4F3 F3F2 F2F1 F1F0 F0E0 E0D0 D0C0 C0B0"/>
    </vehicle>
    <vehicle id="136" depart="170.00">
        <route edges="E0E1 E1E2 E2F2 F2F1"/>
    </vehicle>
    <vehicle id="137" depart="171.25">
        <route edges="A3B3 B3B2 B2B1 B1B0"/>
    </vehicle>
    <vehicle id="138" depart="172.50">
        <route edges="A2A3 A3B3 B3C3 C3D3 D3D2 D2D1 D1D0"/>
    </vehicle>
    <vehicle id="139" depart="173.75">
        <route edges="B1B0 B0C0 C0D0 D0D1 D1D2 D2D3 D3C3"/>
    </vehicle>
    <vehicle id="140" depart="175.00">
        <route edges="E1F1 F1F2 F2F3 F3E3 E3D3 D3C3 C3B3 B3A3"/>
    </vehicle>
    <vehicle id="141" depart="176.25">
        <route edges="D4E4 E4E3 E3D3 D3C3 C3B3 B3B4 B4B5"/>
    </vehicle>
    <vehicle id="142" depart="177.50">
        <route edges="C2C1 C1D1 D1E1 E1E2 E2E3 E3E4 E4E5 E5F5"/>
    </vehicle>
    <vehicle id="143" depart="178.75">
        <route edges="F0F1 F1F2 F2F3 F3F4 F4E4 E4D4 D4C4 C4B4 B4A4 A4A5 A5B5"/>
    </vehicle>
    <vehicle id="144" depart="180.00">
        <route edges="B5C5 C5C4 C4C3 C3B3 B3B4 B4C4"/>
    </vehicle>
    <vehicle id="145" depart="181.25">
        <route edges="A0A1 A1A2 A2B2 B2C2 C2D2 D2E2 E2E1"/>
    </vehicle>
    <vehicle id="146" depart="182.50">
        <route edges="D5C5 C5B5 B5B4 B4B3"/>
    </vehicle>
    <vehicle id="147" depart="183.75">
        <route edges="E2F2 F2F1 F1E1 E1D1 D1D0"/>
    </vehicle>
    <vehicle id="148" depart="185.00">
        <route edges="B5C5 C5C4 C4C3 C3C2 C2C1 C1B1 B1A1 A1A2"/>
    </vehicle>
    <vehicle id="149" depart="186.25">
        <route edges="A1A2 A2A3 A3A4 A4B4 B4C4 C4D4 D4E4 E4E5"/>
    </vehicle>
    <vehicle id="150" depart="187.50">
        <route edges="F2F1 F1E1 E1D1 D1C1"/>
    </vehicle>
    <vehicle id="151" depart="188.75">
        <route edges="F0F1 F1F2 F2E2 E2D2 D2C2"/>
    </vehicle>
    <vehicle id="152" depart="190.00">
        <route edges="A4A5 A5B5 B5C5 C5C4 C4C3 C3C2 C2C1 C1B1 B1B2"/>
    </vehicle>
    <vehicle id="153" depart="191.25">
        <route edges="B2A2 A2A3 A3A4 A4A5 A5B5 B5C5 C5D5 D5E5 E5E4"/>
    </vehicle>
    <vehicle id="154" depart="192.50">
        <route edges="E5D5 D5D4 D4D3 D3E3 E3E4 E4D4"/>
    </vehicle>
    <vehicle id="155" depart="193.75">
        <route edges="F2E2 E2D2 D2C2 C2C3 C3B3 B3B2"/>
    </vehicle>
    <vehicle id="156" depart="195.00">
        <route edges="B0C0"/>
    </vehicle>
    <vehicle id="157" depart="196.25">
        <route edges="E4F4 F4F3 F3E3 E3E4 E4E5"/>
    </vehicle>
    <vehicle id="158" depart="197.50">
        <route edges="B5A5 A5A4 A4A3 A3B3 B3C3 C3D3 D3D4"/>
    </vehicle>
    <vehicle id="159" depart="198.75">
        <route edges="A4A5 A5B5 B5C5 C5D5 D5E5 E5F5 F5F4 F4F3 F3F2 F2E2"/>
    </vehicle>
    <vehicle id="160" depart="200.00">
        <route edges="F1F0 F0E0 E0E1 E1E2 E2E3 E3F3 F3F4"/>
    </vehicle>
    <vehicle id="161" depart="201.25">
        <route edges="E5F5 F5F4 F4E4 E4E5"/>
    </vehicle>
    <vehicle id="162" depart="202.50">
        <route edges="A0B0 B0C0 C0D0 D0D1 D1E1 E1E0"/>
    </vehicle>
    <vehicle id="163" depart="203.75">
        <route edges="B3A3 A3A4 A4B4 B4C4 C4D4 D4E4 E4F4 F4F3 F3F2 F2E2"/>
    </vehicle>
    <vehicle id="164" depart="205.00">
        <route edges="E5E4 E4D4"/>
    </vehicle>
    <vehicle id="165" depart="206.25">
        <route edges="E5F5 F5F4 F4E4 E4D4 D4C4 C4B4 B4B5"/>
    </vehicle>
    <vehicle id="166" depart="207.50">
        <route edges="E4F4 F4F3 F3E3 E3D3 D3C3 C3B3 B3B2 B2B1 B1B0 B0C0"/>
    </vehicle>
    <vehicle id="167" depart="208.75">
        <route edges="F1F0 F0E0 E0E1 E1E2 E2E3 E3E4 E4D4"/>
    </vehicle>
    <vehicle id="168" depart="210.00">
        <route edges="B0A0 A0A1 A1A2 A2A3 A3B3 B3C3 C3D3 D3E3 E3E2"/>
    </vehicle>
    <vehicle id="169" depart="211.25">
        <route edges="C1B1 B1B0 B0C0 C0C1"/>
    </vehicle>
    <vehicle id="170" depart="212.50">
        <route edges="E5D5 D5C5 C5C4 C4C3 C3B3 B3B4"/>
    </vehicle>
    <vehicle id="171" depart="213.75">
        <route edges="A0B0 B0B1 B1B2 B2C2"/>
    </vehicle>
    <vehicle id="172" depart="215.00">
        <route edges="B2C2 C2D2 D2E2 E2E3 E3E4 E4D4"/>
    </vehicle>
    <vehicle id="173" depart="216.25">
        <route edges="F4F5 F5E5 E5D5 D5C5 C5B5 B5B4 B4C4"/>
    </vehicle>
    <vehicle id="174" depart="217.50">
        <route edges="D5D4 D4D3 D3C3 C3B3"/>
    </vehicle>
    <vehicle id="175" depart="218.75">
        <route edges="F5E5 E5D5 D5D4 D4D3 D3D2 D2D1 D1C1"/>
    </vehicle>
    <vehicle id="176" depart="220.00">
        <route edges="F3F4 F4E4 E4D4 D4C4 C4B4 B4B3 B3B2 B2B1 B1B0"/>
    </vehicle>
    <vehicle id="177" depart="221.25">
        <route edges="F4F5 F5E5 E5D5 D5C5 C5C4 C4C3 C3C2 C2B2 B2B3"/>
    </vehicle>
    <vehicle id="178" depart="222.50">
        <route edges="F4F5 F5E5 E5D5 D5C5 C5C4 C4B4 B4B5"/>
    </vehicle>
    <vehicle id="179" depart="223.75">
        <route edges="A2A3 A3B3 B3C3 C3C4 C4B4"/>
    </vehicle>
    <vehicle id="180" depart="225.00">
        <route edges="E2E1 E1D1 D1C1 C1C0 C0D0"/>
    </vehicle>
    <vehicle id="181" depart="226.25">
        <route edges="D2D3 D3E3 E3E2 E2E1 E1E0 E0D0 D0D1"/>
    </vehicle>
    <vehicle id="182" depart="227.50">
        <route edges="B4C4 C4D4 D4D3 D3D2 D2C2"/>
    </vehicle>
    <vehicle id="183" depart="228.75">
        <route edges="B0C0 C0D0 D0D1 D1E1 E1E0 E0D0"/>
    </vehicle>
    <vehicle id="184" depart="230.00">
        <route edges="A0A1 A1B1 B1C1 C1D1 D1E1 E1F1 F1F2"/>
    </vehicle>
    <vehicle id="185" depart="231.25">
        <route edges="C5B5 B5B4 B4B3 B3B2 B2B1 B1B0 B0C0 C0D0 D0E0 E0F0"/>
    </vehicle>
    <vehicle id="186" depart="232.50">
        <route edges="E2F2 F2F3 F3E3 E3D3 D3D4 D4E4"/>
    </vehicle>
    <vehicle id="187" depart="233.75">
        <route edges="B4B3 B3B2 B2A2 A2A3 A3B3"/>
    </vehicle>
    <vehicle id="188" depart="235.00">
        <route edges="E0E1 E1D1 D1C1 C1B1"/>
    </vehicle>
    <vehicle id="189" depart="236.25">
        <route edges="B2B1 B1C1 C1D1 D1E1 E1E2 E2E3 E3F3"/>
    </vehicle>
    <vehicle id="190" depart="237.50">
        <route edges="E1F1 F1F0 F0E0 E0D0 D0C0 C0B0"/>
    </vehicle>
    <vehicle id="191" depart="238.75">
        <route edges="B2A2 A2A3 A3B3 B3C3 C3C2"/>
    </vehicle>
    <vehicle id="192" depart="240.00">
        <route edges="B5A5 A5A4 A4A3 A3A2 A2A1 A1B1 B1C1 C1C0 C0B0"/>
    </vehicle>
    <vehicle id="193" depart="241.25">
        <route edges="A3A4 A4B4 B4B3 B3C3 C3D3"/>
    </vehicle>
    <vehicle id="194" depart="242.50">
        <route edges="F3F4 F4F5 F5E5 E5D5 D5D4 D4E4"/>
    </vehicle>
    <vehicle id="195" depart="243.75">
        <route edges="F2F1 F1E1 E1E2 E2E3 E3D3 D3D2"/>
    </vehicle>
    <vehicle id="196" depart="245.00">
        <route edges="B1C1 C1D1 D1D0"/>
    </vehicle>
    <vehicle id="197" depart="246.25">
        <route edges="A0A1 A1A2 A2A3 A3A4 A4A5 A5B5 B5B4"/>
    </vehicle>
    <vehicle id="198" depart="247.50">
        <route edges="B5C5 C5D5 D5D4 D4D3 D3D2 D2C2"/>
    </vehicle>
    <vehicle id="199" depart="248.75">
        <route edges="E0D0 D0C0 C0C1 C1C2 C2C3 C3C4 C4D4"/>
    </vehicle>
    <vehicle id="200" depart="250.00">
        <route edges="C0B0 B0A0 A0A1 A1A2 A2A3 A3B3 B3B2"/>
    </vehicle>
    <vehicle id="201" depart="251.25">
        <route edges="C1C0 C0D0 D0D1 D1D2 D2D3 D3D4 D4D5 D5E5 E5E4"/>
    </vehicle>
    <vehicle id="202" depart="252.50">
        <route edges="E5D5 D5C5 C5C4 C4C3 C3C2 C2B2 B2B3"/>
    </vehicle>
    <vehicle id="203" depart="253.75">
        <route edges="A1B1 B1B0 B0C0 C0D0 D0D1"/>
    </vehicle>
    <vehicle id="204" depart="255.00">
        <route edges="D4E4 E4E3 E3E2 E2E1 E1D1 D1C1 C1C0"/>
    </vehicle>
    <vehicle id="205" depart="256.25">
        <route edges="E5F5 F5F4 F4F3 F3F2 F2E2 E2E1 E1F1"/>
    </vehicle>
    <vehicle id="206" depart="257.50">
        <route edges="E0E1 E1E2 E2E3 E3D3 D3C3 C3B3 B3B2"/>
    </vehicle>
    <vehicle id="207" depart="258.75">
        <route edges="A5B5 B5B4 B4B3 B3B2 B2A2 A2A1"/>
    </vehicle>
    <vehicle id="208" depart="260.00">
        <route edges="B0C0 C0C1 C1C2 C2C3 C3C4 C4C5 C5B5"/>
    </vehicle>
    <vehicle id="209" depart="261.25">
        <route edges="F0F1 F1F2 F2F3 F3F4 F4E4 E4D4 D4C4 C4B4 B4A4 A4A3"/>
    </vehicle>
    <vehicle id="210" depart="262.50">
        <route edges="B5B4 B4C4 C4C5 C5D5 D5D4 D4C4"/>
    </vehicle>
    <vehicle id="211" depart="263.75">
        <route edges="A5B5 B5C5 C5D5 D5D4"/>
    </vehicle>
    <vehicle id="212" depart="265.00">
        <route edges="C2C3 C3C4 C4B4 B4B3 B3C3"/>
    </vehicle>
    <vehicle id="213" depart="266.25">
        <route edges="E0D0 D0C0 C0B0 B0B1 B1A1 A1A0 A0B0"/>
    </vehicle>
    <vehicle id="214" depart="267.50">
        <route edges="E3E2 E2E1"/>
    </vehicle>
    <vehicle id="215" depart="268.75">
        <route edges="A2A3 A3B3 B3C3 C3D3"/>
    </vehicle>
    <vehicle id="216" depart="270.00">
        <route edges="A5A4 A4B4 B4C4 C4D4 D4E4 E4F4 F4F3 F3E3"/>
    </vehicle>
    <vehicle id="217" depart="271.25">
        <route edges="C4B4 B4A4 A4A3 A3A2"/>
    </vehicle>
    <vehicle id="218" depart="272.50">
        <route edges="B0C0 C0D0 D0E0 E0E1 E1E2 E2E3 E3F3"/>
    </vehicle>
    <vehicle id="219" depart="273.75">
        <route edges="C0D0 D0E0 E0E1 E1E2 E2F2"/>
    </vehicle>
    <vehicle id="220" depart="275.00">
        <route edges="E0E1 E1E2 E2E3 E3E4 E4F4 F4F3"/>
    </vehicle>
    <vehicle id="221" depart="276.25">
        <route edges="D1E1 E1F1 F1F2 F2F3"/>
    </vehicle>
    <vehicle id="222" depart="277.50">
        <route edges="F1F2 F2F3 F3E3 E3D3 D3D2"/>
    </vehicle>
    <vehicle id="223" depart="278.75">
        <route edges="E1F1 F1F0 F0E0 E0D0 D0C0"/>
    </vehicle>
    <vehicle id="224" depart="280.00">
        <route edges="F0E0 E0E1 E1D1 D1D0"/>
    </vehicle>
    <vehicle id="225" depart="281.25">
        <route edges="F1F2 F2E2 E2D2 D2D1 D1E1 E1E2"/>
    </vehicle>
    <vehicle id="226" depart="282.50">
        <route edges="C1C2 C2C3 C3C4 C4B4 B4B3"/>
    </vehicle>
    <vehicle id="227" depart="283.75">
        <route edges="B0C0 C0D0 D0D1 D1D2 D2D3 D3D4 D4C4"/>
    </vehicle>
    <vehicle id="228" depart="285.00">
        <route edges="E4D4 D4D3 D3D2 D2D1 D1D0 D0E0"/>
    </vehicle>
    <vehicle id="229" depart="286.25">
        <route edges="D4D5 D5C5 C5B5 B5B4 B4C4"/>
    </vehicle>
    <vehicle id="230" depart="287.50">
        <route edges="A1B1 B1C1 C1C2 C2C3 C3C4 C4C5 C5B5 B5B4"/>
    </vehicle>
    <vehicle id="231" depart="288.75">
        <route edges="B1B0 B0C0 C0D0"/>
    </vehicle>
    <vehicle id="232" depart="290.00">
        <route edges="C5B5 B5B4 B4B3 B3B2 B2B1 B1C1"/>
    </vehicle>
    <vehicle id="233" depart="291.25">
        <route edges="B0B1 B1B2 B2B3 B3B4 B4B5 B5C5 C5D5 D5D4"/>
    </vehicle>
    <vehicle id="234" depart="292.50">
        <route edges="E1E2 E2D2 D2C2 C2B2 B2A2 A2A3 A3B3"/>
    </vehicle>
    <vehicle id="235" depart="293.75">
        <route edges="B5B4 B4B3 B3B2 B2C2 C2D2 D2D1 D1C1"/>
    </vehicle>
    <vehicle id="236" depart="295.00">
        <route edges="B5B4 B4B3 B3B2"/>
    </vehicle>
    <vehicle id="237" depart="296.25">
        <route edges="B5C5 C5D5 D5E5 E5F5"/>
    </vehicle>
    <vehicle id="238" depart="297.50">
        <route edges="D1D0 D0C0 C0C1 C1C2 C2C3 C3C4 C4C5 C5D5 D5D4"/>
    </vehicle>
    <vehicle id="239" depart="298.75">
        <route edges="F1E1 E1D1 D1D2 D2E2 E2E1"/>
    </vehicle>
    <vehicle id="240" depart="300.00">
        <route edges="B4C4 C4C3 C3C2 C2C1 C1B1 B1A1 A1A0 A0B0"/>
    </vehicle>
    <vehicle id="241" depart="301.25">
        <route edges="B4A4 A4A3 A3A2 A2A1 A1B1 B1C1 C1D1 D1E1 E1F1"/>
    </vehicle>
    <vehicle id="242" depart="302.50">
        <route edges="F0F1 F1F2 F2F3 F3E3"/>
    </vehicle>
    <vehicle id="243" depart="303.75">
        <route edges="B5C5 C5D5 D5D4 D4D3 D3D2 D2D1 D1E1 E1E2"/>
    </vehicle>
    <vehicle id="244" depart="305.00">
        <route edges="C5C4 C4D4 D4D3 D3C3"/>
    </vehicle>
    <vehicle id="245" depart="306.25">
        <route edges="B0A0 A0A1 A1A2 A2A3 A3B3 B3B2"/>
    </vehicle>
    <vehicle id="246" depart="307.50">
        <route edges="C0B0 B0A0 A0A1 A1A2 A2A3"/>
    </vehicle>
    <vehicle id="247" depart="308.75">
        <route edges="B3B2 B2C2 C2D2 D2D3 D3D4 D4E4"/>
    </vehicle>
    <vehicle id="248" depart="310.00">
        <route edges="B5A5 A5A4 A4A3 A3A2 A2B2 B2B1"/>
    </vehicle>
    <vehicle id="249" depart="311.25">
        <route edges="C1B1 B1B2"/>
    </vehicle>
    <vehicle id="250" depart="312.50">
        <route edges="D4C4 C4B4 B4B3 B3B2 B2A2 A2A3"/>
    </vehicle>
    <vehicle id="251" depart="313.75">
        <route edges="B5A5 A5A4 A4A3 A3A2 A2A1 A1B1 B1C1 C1D1 D1E1"/>
    </vehicle>
    <vehicle id="252" depart="315.00">
        <route edges="A0B0 B0C0 C0D0 D0D1 D1D2 D2D3 D3D4 D4C4"/>
    </vehicle>
    <vehicle id="253" depart="316.25">
        <route edges="A3B3 B3C3 C3C4 C4D4"/>
    </vehicle>
    <vehicle id="254" depart="317.50">
        <route edges="A1A0 A0B0 B0B1 B1B2 B2C2 C2C1"/>
    </vehicle>
    <vehicle id="255" depart="318.75">
        <route edges="B0A0 A0A1 A1A2 A2B2 B2C2 C2C1 C1B1"/>
    </vehicle>
    <vehicle id="256" depart="320.00">
        <route edges="E3F3 F3F2 F2E2 E2D2 D2C2 C2C1"/>
    </vehicle>
    <vehicle id="257" depart="321.25">
        <route edges="E3E2"/>
    </vehicle>
    <vehicle id="258" depart="322.50">
        <route edges="B0C0 C0C1 C1C2 C2C3 C3B3 B3A3 A3A4 A4B4"/>
    </vehicle>
    <vehicle id="259" depart="323.75">
        <route edges="A0A1 A1A2 A2B2 B2C2 C2D2 D2D1 D1C1"/>
    </vehicle>
    <vehicle id="260" depart="325.00">
        <route edges="F5F4 F4F3 F3F2 F2E2 E2D2 D2C2 C2C1 C1D1"/>
    </vehicle>