<additional><inductionLoop id="ild_A0A1" lane="A0A1_0" pos="60" period="900" file="detector_data.out.xml" /><inductionLoop id="ild_A0B0" lane="A0B0_0" pos="60" period="900" file="detector_data.out.xml" /><inductionLoop id="ild_A1A0" lane="A1A0_0" pos="60" period="900" file="detector_data.out.xml" /><inductionLoop id="ild_A1A2" lane="A1A2_0" pos="60" period="900" file="detector_data.out.xml" /><inductionLoop id="ild_A1B1" lane="A1B1_0" pos="60" period="900" file="detector_data.out.xml" /><inductionLoop id="ild_A2A1" lane="A2A1_0" pos="60" period="900" file="detector_data.out.xml" /><inductionLoop id="ild_A2A3" lane="A2A3_0" pos="60" period="900" file="detector_data.out.xml" /><inductionLoop id="ild_A2B2" lane="A2B2_0" pos="60" period="900" file="detector_data.out.xml" /><inductionLoop id="ild_A3A2" lane="A3A2_0" pos="60" period="900" file="detector_data.out.xml" /><inductionLoop id="ild_A3A4" lane="A3A4_0" pos="60" period="900" file="detector_data.out.xml" /><inductionLoop id="ild_A3B3" lane="A3B3_0" pos="60" period="900" file="detector_data.out.xml" /><inductionLoop id="ild_A4A3" lane="A4A3_0" pos="60" period="900" file="detector_data.out.xml" /><inductionLoop id="ild_A4A5" lane="A4A5_0" pos="60" period="900" file="detector_data.out.xml" /><inductionLoop id="ild_A4B4" lane="A4B4_0" pos="60" period="900" file="detector_data.out.xml" /><inductionLoop id="ild_A5A4" lane="A5A4_0" pos="60" period="900" file="detector_data.out.xml" /><inductionLoop id="ild_A5B5" lane="A5B5_0" pos="60" period="900" file="detector_data.out.xml" /><inductionLoop id="ild_B0A0" lane="B0A0_0" pos="60" period="900" file="detector_data.out.xml" /><inductionLoop id="ild_B0B1" lane="B0B1_0" pos="60" period="900" file="detector_data.out.xml" /><inductionLoop id="ild_B0C0" lane="B0C0_0" pos="60" period="900" file="detector_data.out.xml" /><inductionLoop id="ild_B1A1" lane="B1A1_0" pos="60" period="900" file="detector_data.out.xml" /><inductionLoop id="ild_B1B0" lane="B1B0_0" pos="60" period="900" file="detector_data.out.xml" /><inductionLoop id="ild_B1B2" lane="B1B2_0" pos="60" period="900" file="detector_data.out.xml" /><inductionLoop id="ild_B1C1" lane="B1C1_0" pos="60" period="900" file="detector_data.out.xml" /><inductionLoop id="ild_B2A2" lane="B2A2_0" pos="60" period="900" file="detector_data.out.xml" /><inductionLoop id="ild_B2B1" lane="B2B1_0" pos="60" period="900" file="detector_data.out.xml" /><inductionLoop id="ild_B2B3" lane="B2B3_0" pos="60" period="900" file="detector_data.out.xml" /><inductionLoop id="ild_B2C2" lane="B2C2_0" pos="60" period="900" file="detector_data.out.xml" /><inductionLoop id="ild_B3A3" lane="B3A3_0" pos="60" period="900" file="detector_data.out.xml" /><inductionLoop id="ild_B3B2" lane="B3B2_0" pos="60" period="900" file="detector_data.out.xml" /><inductionLoop id="ild_B3B4" lane="B3B4_0" pos="60" period="900" file="detector_data.out.xml" /><inductionLoop id="ild_B3C3" lane="B3C3_0" pos="60" period="900" file="detector_data.out.xml" /><inductionLoop id="ild_B4A4" lane="B4A4_0" pos="60" period="900" file="detector_data.out.xml" /><inductionLoop id="ild_B4B3" lane="B4B3_0" pos="60" period="900" file="detector_data.out.xml" /><inductionLoop id="ild_B4B5" lane="B4B5_0" pos="60" period="900" file="detector_data.out.xml" /><inductionLoop id="ild_B4C4" lane="B4C4_0" pos="60" period="900" file="detector_data.out.xml" /><inductionLoop id="ild_B5A5" lane="B5A5_0" pos="60" period="900" file="detector_data.out.xml" /><inductionLoop id="ild_B5B4" lane="B5B4_0" pos="60" period="900" file="detector_data.out.xml" /><inductionLoop id="ild_B5C5" lane="B5C5_0" pos="60" period="900" file="detector_data.out.xml" /><inductionLoop id="ild_C0B0" lane="C0B0_0" pos="60" period="900" file="detector_data.out.xml" /><inductionLoop id="ild_C0C1" lane="C0C1_0" pos="60" period="900" file="detector_data.out.xml" /><inductionLoop id="ild_C0D0" lane="C0D0_0" pos="60" period="900" file="detector_data.out.xml" /><inductionLoop id="ild_C1B1" lane="C1B1_0" pos="60" period="900" file="detector_data.out.xml" /><inductionLoop id="ild_C1C0" lane="C1C0_0" pos="60" period="900" file="detector_data.out.xml" /><inductionLoop id="ild_C1C2" lane="C1C2_0" pos="60" period="900" file="detector_data.out.xml" /><inductionLoop id="ild_C1D1" lane="C1D1_0" pos="60" period="900" file="detector_data.out.xml" /><inductionLoop id="ild_C2B2" lane="C2B2_0" pos="60" period="900" file="detector_data.out.xml" /><inductionLoop id="ild_C2C1" lane="C2C1_0" pos="60" period="900" file="detector_data.out.xml" /><inductionLoop id="ild_C2C3" lane="C2C3_0" pos="60" period="900" file="detector_data.out.xml" /><inductionLoop id="ild_C2D2" lane="C2D2_0" pos="60" period="900" file="detector_data.out.xml" /><inductionLoop id="ild_C3B3" lane="C3B3_0" pos="60" period="900" file="detector_data.out.xml" /><inductionLoop id="ild_C3C2" lane="C3C2_0" pos="60" period="900" file="detector_data.out.xml" /><inductionLoop id="ild_C3C4" lane="C3C4_0" pos="60" period="900" file="detector_data.out.xml" /><inductionLoop id="ild_C3D3" lane="C3D3_0" pos="60" period="900" file="detector_data.out.xml" /><inductionLoop id="ild_C4B4" lane="C4B4_0" pos="60" period="900" file="detector_data.out.xml" /><inductionLoop id="ild_C4C3" lane="C4C3_0" pos="60" period="900" file="detector_data.out.xml" /><inductionLoop id="ild_C4C5" lane="C4C5_0" pos="60" period="900" file="detector_data.out.xml" /><inductionLoop id="ild_C4D4" lane="C4D4_0" pos="60" period="900" file="detector_data.out.xml" /><inductionLoop id="ild_C5B5" lane="C5B5_0" pos="60" period="900" file="detector_data.out.xml" /><inductionLoop id="ild_C5C4" lane="C5C4_0" pos="60" period="900" file="detector_data.out.xml" /><inductionLoop id="ild_C5D5" lane="C5D5_0" pos="60" period="900" file="detector_data.out.xml" /><inductionLoop id="ild_D0C0" lane="D0C0_0" pos="60" period="900" file="detector_data.out.xml" /><inductionLoop id="ild_D0D1" lane="D0D1_0" pos="60" period="900" file="detector_data.out.xml" /><inductionLoop id="ild_D0E0" lane="D0E0_0" pos="60" period="900" file="detector_data.out.xml" /><inductionLoop id="ild_D1C1" lane="D1C1_0" pos="60" period="900" file="detector_data.out.xml" /><inductionLoop id="ild_D1D0" lane="D1D0_0" pos="60" period="900" file="detector_data.out.xml" /><inductionLoop id="ild_D1D2" lane="D1D2_0" pos="60" period="900" file="detector_data.out.xml" /><inductionLoop id="ild_D1E1" lane="D1E1_0" pos="60" period="900" file="detector_data.out.xml" /><inductionLoop id="ild_D2C2" lane="D2C2_0" pos="60" period="900" file="detector_data.out.xml" /><inductionLoop id="ild_D2D1" lane="D2D1_0" pos="60" period="900" file="detector_data.out.xml" /><inductionLoop id="ild_D2D3" lane="D2D3_0" pos="60" period="900" file="detector_data.out.xml" /><inductionLoop id="ild_D2E2" lane="D2E2_0" pos="60" period="900" file="detector_data.out.xml" /><inductionLoop id="ild_D3C3" lane="D3C3_0" pos="60" period="900" file="detector_data.out.xml" /><inductionLoop id="ild_D3D2" lane="D3D2_0" pos="60" period="900" file="detector_data.out.xml" /><inductionLoop id="ild_D3D4" lane="D3D4_0" pos="60" period="900" file="detector_data.out.xml" /><inductionLoop id="ild_D3E3" lane="D3E3_0" pos="60" period="900" file="detector_data.out.xml" /><inductionLoop id="ild_D4C4" lane="D4C4_0" pos="60" period="900" file="detector_data.out.xml" /><inductionLoop id="ild_D4D3" lane="D4D3_0" pos="60" period="900" file="detector_data.out.xml" /><inductionLoop id="ild_D4D5" lane="D4D5_0" pos="60" period="900" file="detector_data.out.xml" /><inductionLoop id="ild_D4E4" lane="D4E4_0" pos="60" period="900" file="detector_data.out.xml" /><inductionLoop id="ild_D5C5" lane="D5C5_0" pos="60" period="900" file="detector_data.out.xml" /><inductionLoop id="ild_D5D4" lane="D5D4_0" pos="60" period="900" file="detector_data.out.xml" /><inductionLoop id="ild_D5E5" lane="D5E5_0" pos="60" period="900" file="detector_data.out.xml" /><inductionLoop id="ild_E0D0" lane="E0D0_0" pos="60" period="900" file="detector_data.out.xml" /><inductionLoop id="ild_E0E1" lane="E0E1_0" pos="60" period="900" file="detector_data.out.xml" /><inductionLoop id="ild_E0F0" lane="E0F0_0" pos="60" period="900" file="detector_data.out.xml" /><inductionLoop id="ild_E1D1" lane="E1D1_0" pos="60" period="900" file="detector_data.out.xml" /><inductionLoop id="ild_E1E0" lane="E1E0_0" pos="60" period="900" file="detector_data.out.xml" /><inductionLoop id="ild_E1E2" lane="E1E2_0" pos="60" period="900" file="detector_data.out.xml" /><inductionLoop id="ild_E1F1" lane="E1F1_0" pos="60" period="900" file="detector_data.out.xml" /><inductionLoop id="ild_E2D2" lane="E2D2_0" pos="60" period="900" file="detector_data.out.xml" /><inductionLoop id="ild_E2E1" lane="E2E1_0" pos="60" period="900" file="detector_data.out.xml" /><inductionLoop id="ild_E2E3" lane="E2E3_0" pos="60" period="900" file="detector_data.out.xml" /><inductionLoop id="ild_E2F2" lane="E2F2_0" pos="60" period="900" file="detector_data.out.xml" /><inductionLoop id="ild_E3D3" lane="E3D3_0" pos="60" period="900" file="detector_data.out.xml" /><inductionLoop id="ild_E3E2" lane="E3E2_0" pos="60" period="900" file="detector_data.out.xml" /><inductionLoop id="ild_E3E4" lane="E3E4_0" pos="60" period="900" file="detector_data.out.xml" /><inductionLoop id="ild_E3F3" lane="E3F3_0" pos="60" period="900" file="detector_data.out.xml" /><inductionLoop id="ild_E4D4" lane="E4D4_0" pos="60" period="900" file="detector_data.out.xml" /><inductionLoop id="ild_E4E3" lane="E4E3_0" pos="60" period="900" file="detector_data.out.xml" /><inductionLoop id="ild_E4E5" lane="E4E5_0" pos="60" period="900" file="detector_data.out.xml" /><inductionLoop id="ild_E4F4" lane="E4F4_0" pos="60" period="900" file="detector_data.out.xml" /><inductionLoop id="ild_E5D5" lane="E5D5_0" pos="60" period="900" file="detector_data.out.xml" /><inductionLoop id="ild_E5E4" lane="E5E4_0" pos="60" period="900" file="detector_data.out.xml" /><inductionLoop id="ild_E5F5" lane="E5F5_0" pos="60" period="900" file="detector_data.out.xml" /><inductionLoop id="ild_F0E0" lane="F0E0_0" pos="60" period="900" file="detector_data.out.xml" /><inductionLoop id="ild_F0F1" lane="F0F1_0" pos="60" period="900" file="detector_data.out.xml" /><inductionLoop id="ild_F1E1" lane="F1E1_0" pos="60" period="900" file="detector_data.out.xml" /><inductionLoop id="ild_F1F0" lane="F1F0_0" pos="60" period="900" file="detector_data.out.xml" /><inductionLoop id="ild_F1F2" lane="F1F2_0" pos="60" period="900" file="detector_data.out.xml" /><inductionLoop id="ild_F2E2" lane="F2E2_0" pos="60" period="900" file="detector_data.out.xml" /><inductionLoop id="ild_F2F1" lane="F2F1_0" pos="60" period="900" file="detector_data.out.xml" /><inductionLoop id="ild_F2F3" lane="F2F3_0" pos="60" period="900" file="detector_data.out.xml" /><inductionLoop id="ild_F3E3" lane="F3E3_0" pos="60" period="900" file="detector_data.out.xml" /><inductionLoop id="ild_F3F2" lane="F3F2_0" pos="60" period="900" file="detector_data.out.xml" /><inductionLoop id="ild_F3F4" lane="F3F4_0" pos="60" period="900" file="detector_data.out.xml" /><inductionLoop id="ild_F4E4" lane="F4E4_0" pos="60" period="900" file="detector_data.out.xml" /><inductionLoop id="ild_F4F3" lane="F4F3_0" pos="60" period="900" file="detector_data.out.xml" /><inductionLoop id="ild_F4F5" lane="F4F5_0" pos="60" period="900" file="detector_data.out.xml" /><inductionLoop id="ild_F5E5" lane="F5E5_0" pos="60" period="900" file="detector_data.out.xml" /><inductionLoop id="ild_F5F4" lane="F5F4_0" pos="60" period="900" file="detector_data.out.xml" /></additional>